pcf
* control data
restart estimation
     24  13739     11      0     31
     1     1   single   point   1   0   0
5.0   2.0    0.3    0.03    10  999
5.0   5.0   1.0e-3
0.1   aui
0   .005  4   4  .005   4
1    1    1
* parameter groups
lzsn         relative     1.0000E-02  1.0000E-03  switch      2.000      parabolic
infilt       relative     1.0000E-02  1.0000E-03  switch      2.000      parabolic
agwrc        relative     1.0000E-02  1.0000E-03  switch      2.000      parabolic
deepfr       relative     1.0000E-02  1.0000E-03  switch      2.000      parabolic
basetp       relative     1.0000E-02  1.0000E-03  switch      2.000      parabolic
agwetp       relative     1.0000E-02  1.0000E-03  switch      2.000      parabolic
uzsn         relative     1.0000E-02  1.0000E-03  switch      2.000      parabolic
intfw        relative     1.0000E-02  1.0000E-03  switch      2.000      parabolic
irc          relative     1.0000E-02  1.0000E-03  switch      2.000      parabolic
cepsc        relative     1.0000E-02  1.0000E-03  switch      2.000      parabolic
lzetp        relative     1.0000E-02  1.0000E-03  switch      2.000      parabolic
* parameter data
lzsn000      log    factor        8.0000        2.0000        15.000      lzsn           1.000       0.000        1
infilt110    log    factor       5.00000E-02   1.00000E-03   0.50000      infilt         1.000       0.000        1
infilt120    log    factor       5.00000E-02   1.00000E-03   0.50000      infilt         1.000       0.000        1
infilt210    log    factor       5.00000E-02   1.00000E-03   0.50000      infilt         1.000       0.000        1
infilt220    log    factor       5.00000E-02   1.00000E-03   0.50000      infilt         1.000       0.000        1
infilt310    log    factor       5.00000E-02   1.00000E-03   0.50000      infilt         1.000       0.000        1
infilt320    log    factor       5.00000E-02   1.00000E-03   0.50000      infilt         1.000       0.000        1
agwrc000     log    factor       0.99000       8.50000E-02   0.99900      agwrc          1.000       0.000        1
deepfr000    log    factor       1.00000E-03   1.00000E-05   0.50000      deepfr         1.000       0.000        1
basetp000    log    factor       3.00000E-02   1.00000E-03   0.20000      basetp         1.000       0.000        1
agwetp000    log    factor       5.00000E-02   1.00000E-03   0.20000      agwetp         1.000       0.000        1
uzsn100      log    factor       0.50000       5.00000E-02    2.0000      uzsn           1.000       0.000        1
uzsn200      log    factor       0.50000       5.00000E-02    2.0000      uzsn           1.000       0.000        1
uzsn300      log    factor       0.50000       5.00000E-02    2.0000      uzsn           1.000       0.000        1
intfw100     log    factor        10.000        1.0000        10.000      intfw          1.000       0.000        1
intfw200     log    factor        1.0000        1.0000        10.000      intfw          1.000       0.000        1
intfw300     log    factor        1.0000        1.0000        10.000      intfw          1.000       0.000        1
irc000       log    factor       0.50000       0.30000       0.85000      irc            1.000       0.000        1
cepsc100     log    factor       0.20000       0.10000       0.40000      cepsc          1.000       0.000        1
cepsc200     log    factor       0.10000       1.00000E-02   0.20000      cepsc          1.000       0.000        1
cepsc300     log    factor       0.10000       1.00000E-02   0.20000      cepsc          1.000       0.000        1
lzetp100     log    factor       0.80000       0.40000       0.80000      lzetp          1.000       0.000        1
lzetp200     log    factor       0.60000       0.10000       0.80000      lzetp          1.000       0.000        1
lzetp300     log    factor       0.60000       0.10000       0.80000      lzetp          1.000       0.000        1
* observation groups
mlog
mflow
mbaseind
mpeak1
mpeak2
mpeak3
mpeak4
mpeak5
mpeak6
mpeak7
mpeak8
mpeak9
mpeak10
mpeak11
mpeak12
mpeak13
mpeak14
mpeak15
mpeak16
mpeak17
mpeak18
mpeak19
mpeak20
mpeak21
mpeak22
mpeak23
mvol_ann
mvol_smr
mvol_wtr
mvol_stm
mtime
* observation data
mlog_1                 1.658966        6.027852E-02  mlog
mlog_2                 1.658966        6.027852E-02  mlog
mlog_3                 1.786752        5.596747E-02  mlog
mlog_4                 1.834421        5.451311E-02  mlog
mlog_5                 1.710118        5.847549E-02  mlog
mlog_6                 1.630429        6.133355E-02  mlog
mlog_7                 1.584332        6.311807E-02  mlog
mlog_8                 1.551451        6.445578E-02  mlog
mlog_9                 1.534027        6.518789E-02  mlog
mlog_10                1.721812        5.807837E-02  mlog
mlog_11                2.617315        3.820709E-02  mlog
mlog_12                2.489818        4.016358E-02  mlog
mlog_13                2.302548        4.343015E-02  mlog
mlog_14                2.161967        4.625417E-02  mlog
mlog_15                2.051153        4.875307E-02  mlog
mlog_16                1.992112        5.019798E-02  mlog
mlog_17                2.004752        4.988149E-02  mlog
mlog_18                2.112605        4.733492E-02  mlog
mlog_19                2.039811        4.902415E-02  mlog
mlog_20                1.998696        5.003263E-02  mlog
mlog_21                1.992112        5.019798E-02  mlog
mlog_22                1.985876        5.035562E-02  mlog
mlog_23                1.938520        5.158573E-02  mlog
mlog_24                1.909556        5.236818E-02  mlog
mlog_25                1.952793        5.120870E-02  mlog
mlog_26                2.349278        4.256627E-02  mlog
mlog_27                2.343802        4.266571E-02  mlog
mlog_28                2.246745        4.450883E-02  mlog
mlog_29                2.170556        4.607115E-02  mlog
mlog_30                2.107549        4.744847E-02  mlog
mlog_31                2.045714        4.888268E-02  mlog
mlog_32                2.004752        4.988149E-02  mlog
mlog_33                1.966142        5.086102E-02  mlog
mlog_34                1.924280        5.196749E-02  mlog
mlog_35                1.901459        5.259120E-02  mlog
mlog_36                1.945961        5.138848E-02  mlog
mlog_37                2.087782        4.789773E-02  mlog
mlog_38                2.323665        4.303547E-02  mlog
mlog_39                2.754425        3.630522E-02  mlog
mlog_40                3.007748        3.324747E-02  mlog
mlog_41                2.807603        3.561758E-02  mlog
mlog_42                3.166252        3.158308E-02  mlog
mlog_43                3.326622        3.006052E-02  mlog
mlog_44                3.217879        3.107637E-02  mlog
mlog_45                3.140634        3.184071E-02  mlog
mlog_46                2.976258        3.359923E-02  mlog
mlog_47                2.835564        3.526636E-02  mlog
mlog_48                2.730944        3.661738E-02  mlog
mlog_49                2.663983        3.753777E-02  mlog
mlog_50                2.588048        3.863916E-02  mlog
mlog_51                2.533645        3.946883E-02  mlog
mlog_52                2.489818        4.016358E-02  mlog
mlog_53                2.454388        4.074336E-02  mlog
mlog_54                2.422918        4.127255E-02  mlog
mlog_55                2.602169        3.842948E-02  mlog
mlog_56                3.022057        3.309004E-02  mlog
mlog_57                3.049954        3.278738E-02  mlog
mlog_58                3.221623        3.104026E-02  mlog
mlog_59                3.570064        2.801070E-02  mlog
mlog_60                3.422934        2.921470E-02  mlog
mlog_61                3.546123        2.819981E-02  mlog
mlog_62                3.518922        2.841780E-02  mlog
mlog_63                3.398947        2.942088E-02  mlog
mlog_64                3.260644        3.066879E-02  mlog
mlog_65                3.151247        3.173347E-02  mlog
mlog_66                3.068297        3.259137E-02  mlog
mlog_67                2.993524        3.340544E-02  mlog
mlog_68                2.911584        3.434557E-02  mlog
mlog_69                2.840984        3.519907E-02  mlog
mlog_70                2.832828        3.530041E-02  mlog
mlog_71                2.958946        3.379582E-02  mlog
mlog_72                3.323685        3.008708E-02  mlog
mlog_73                3.365619        2.971222E-02  mlog
mlog_74                3.471497        2.880602E-02  mlog
mlog_75                3.386428        2.952964E-02  mlog
mlog_76                3.411098        2.931608E-02  mlog
mlog_77                3.243336        3.083245E-02  mlog
mlog_78                3.119553        3.205588E-02  mlog
mlog_79                3.042182        3.287115E-02  mlog
mlog_80                2.976258        3.359923E-02  mlog
mlog_81                2.907035        3.439931E-02  mlog
mlog_82                2.831934        3.531156E-02  mlog
mlog_83                2.764102        3.617812E-02  mlog
mlog_84                2.697491        3.707148E-02  mlog
mlog_85                2.631951        3.799463E-02  mlog
mlog_86                2.570076        3.890936E-02  mlog
mlog_87                2.518909        3.969973E-02  mlog
mlog_88                2.477700        4.036001E-02  mlog
mlog_89                2.485863        4.022747E-02  mlog
mlog_90                2.910037        3.436382E-02  mlog
mlog_91                3.162026        3.162529E-02  mlog
mlog_92                3.326622        3.006052E-02  mlog
mlog_93                3.137512        3.187238E-02  mlog
mlog_94                2.993524        3.340544E-02  mlog
mlog_95                2.908539        3.438153E-02  mlog
mlog_96                2.865222        3.490130E-02  mlog
mlog_97                2.877717        3.474977E-02  mlog
mlog_98                2.950706        3.389020E-02  mlog
mlog_99                3.020900        3.310272E-02  mlog
mlog_100               3.260644        3.066879E-02  mlog
mlog_101               3.170467        3.154110E-02  mlog
mlog_102               3.110085        3.215347E-02  mlog
mlog_103               3.033102        3.296955E-02  mlog
mlog_104               2.935910        3.406099E-02  mlog
mlog_105               2.842734        3.517740E-02  mlog
mlog_106               2.778730        3.598766E-02  mlog
mlog_107               2.932322        3.410267E-02  mlog
mlog_108               3.260644        3.066879E-02  mlog
mlog_109               3.225309        3.100478E-02  mlog
mlog_110               3.124243        3.200775E-02  mlog
mlog_111               3.296446        3.033570E-02  mlog
mlog_112               3.418252        2.925472E-02  mlog
mlog_113               3.507532        2.851007E-02  mlog
mlog_114               3.368268        2.968885E-02  mlog
mlog_115               3.225309        3.100478E-02  mlog
mlog_116               3.403841        2.937858E-02  mlog
mlog_117               3.362935        2.973593E-02  mlog
mlog_118               3.253798        3.073331E-02  mlog
mlog_119               3.194819        3.130067E-02  mlog
mlog_120               3.198740        3.126231E-02  mlog
mlog_121               3.186843        3.137901E-02  mlog
mlog_122               3.104282        3.221357E-02  mlog
mlog_123               3.003461        3.329493E-02  mlog
mlog_124               2.903958        3.443576E-02  mlog
mlog_125               2.812378        3.555709E-02  mlog
mlog_126               2.737749        3.652635E-02  mlog
mlog_127               2.683588        3.726355E-02  mlog
mlog_128               2.710963        3.688726E-02  mlog
mlog_129               3.485863        2.868730E-02  mlog
mlog_130               3.897720        2.565602E-02  mlog
mlog_131               3.827369        2.612761E-02  mlog
mlog_132               3.796880        2.633742E-02  mlog
mlog_133               3.443466        2.904050E-02  mlog
mlog_134               3.214128        3.111264E-02  mlog
mlog_135               3.051615        3.276953E-02  mlog
mlog_136               2.929419        3.413646E-02  mlog
mlog_137               2.828273        3.535726E-02  mlog
mlog_138               2.745621        3.642163E-02  mlog
mlog_139               2.682326        3.728108E-02  mlog
mlog_140               2.691259        3.715734E-02  mlog
mlog_141               2.977541        3.358476E-02  mlog
mlog_142               3.151676        3.172915E-02  mlog
mlog_143               3.100371        3.225421E-02  mlog
mlog_144               3.190864        3.133948E-02  mlog
mlog_145               3.157759        3.166803E-02  mlog
mlog_146               3.386428        2.952964E-02  mlog
mlog_147               3.354819        2.980787E-02  mlog
mlog_148               3.217879        3.107637E-02  mlog
mlog_149               3.093457        3.232630E-02  mlog
mlog_150               2.980140        3.355547E-02  mlog
mlog_151               2.881784        3.470073E-02  mlog
mlog_152               2.791901        3.581789E-02  mlog
mlog_153               2.714498        3.683923E-02  mlog
mlog_154               2.654465        3.767237E-02  mlog
mlog_155               2.614370        3.825013E-02  mlog
mlog_156               2.889021        3.461380E-02  mlog
mlog_157               2.960281        3.378058E-02  mlog
mlog_158               2.905472        3.441782E-02  mlog
mlog_159               2.830139        3.533395E-02  mlog
mlog_160               2.756560        3.627710E-02  mlog
mlog_161               2.693727        3.712329E-02  mlog
mlog_162               2.636287        3.793213E-02  mlog
mlog_163               2.599009        3.847620E-02  mlog
mlog_164               2.546173        3.927463E-02  mlog
mlog_165               2.497759        4.003589E-02  mlog
mlog_166               2.458789        4.067043E-02  mlog
mlog_167               2.418302        4.135134E-02  mlog
mlog_168               2.376212        4.208379E-02  mlog
mlog_169               2.346549        4.261578E-02  mlog
mlog_170               2.320770        4.308916E-02  mlog
mlog_171               2.296446        4.354555E-02  mlog
mlog_172               2.267407        4.410325E-02  mlog
mlog_173               2.243287        4.457745E-02  mlog
mlog_174               2.270679        4.403969E-02  mlog
mlog_175               2.243287        4.457745E-02  mlog
mlog_176               2.206556        4.531949E-02  mlog
mlog_177               2.174641        4.598459E-02  mlog
mlog_178               2.153510        4.643581E-02  mlog
mlog_179               2.140194        4.672474E-02  mlog
mlog_180               2.121888        4.712784E-02  mlog
mlog_181               2.117272        4.723059E-02  mlog
mlog_182               2.112605        4.733492E-02  mlog
mlog_183               2.174641        4.598459E-02  mlog
mlog_184               2.186957        4.572564E-02  mlog
mlog_185               2.194792        4.556240E-02  mlog
mlog_186               2.178689        4.589915E-02  mlog
mlog_187               2.170556        4.607115E-02  mlog
mlog_188               2.148911        4.653519E-02  mlog
mlog_189               2.131298        4.691976E-02  mlog
mlog_190               2.112605        4.733492E-02  mlog
mlog_191               2.097951        4.766555E-02  mlog
mlog_192               2.077731        4.812942E-02  mlog
mlog_193               2.082786        4.801262E-02  mlog
mlog_194               2.148911        4.653519E-02  mlog
mlog_195               2.526339        3.958297E-02  mlog
mlog_196               2.871106        3.482978E-02  mlog
mlog_197               2.763054        3.619184E-02  mlog
mlog_198               2.641970        3.785055E-02  mlog
mlog_199               2.583199        3.871169E-02  mlog
mlog_200               2.614370        3.825013E-02  mlog
mlog_201               2.626135        3.807877E-02  mlog
mlog_202               2.713322        3.685519E-02  mlog
mlog_203               2.786893        3.588225E-02  mlog
mlog_204               2.842734        3.517740E-02  mlog
mlog_205               2.847141        3.512296E-02  mlog
mlog_206               3.270702        3.057447E-02  mlog
mlog_207               3.450095        2.898471E-02  mlog
mlog_208               3.239775        3.086634E-02  mlog
mlog_209               3.076167        3.250799E-02  mlog
mlog_210               2.943692        3.397094E-02  mlog
mlog_211               2.838282        3.523258E-02  mlog
mlog_212               2.746712        3.640717E-02  mlog
mlog_213               2.659916        3.759517E-02  mlog
mlog_214               2.586362        3.866434E-02  mlog
mlog_215               2.518909        3.969973E-02  mlog
mlog_216               2.469380        4.049599E-02  mlog
mlog_217               2.413468        4.143416E-02  mlog
mlog_218               2.354877        4.246507E-02  mlog
mlog_219               2.302548        4.343015E-02  mlog
mlog_220               2.273927        4.397679E-02  mlog
mlog_221               2.236286        4.471701E-02  mlog
mlog_222               2.194792        4.556240E-02  mlog
mlog_223               2.166134        4.616519E-02  mlog
mlog_224               2.135769        4.682155E-02  mlog
mlog_225               2.112605        4.733492E-02  mlog
mlog_226               2.170556        4.607115E-02  mlog
mlog_227               2.148911        4.653519E-02  mlog
mlog_228               2.148911        4.653519E-02  mlog
mlog_229               2.126456        4.702660E-02  mlog
mlog_230               2.202761        4.539757E-02  mlog
mlog_231               2.360215        4.236902E-02  mlog
mlog_232               2.460898        4.063557E-02  mlog
mlog_233               2.427649        4.119212E-02  mlog
mlog_234               2.403807        4.160068E-02  mlog
mlog_235               2.675870        3.737102E-02  mlog
mlog_236               2.853272        3.504748E-02  mlog
mlog_237               2.772542        3.606799E-02  mlog
mlog_238               2.670617        3.744453E-02  mlog
mlog_239               2.579898        3.876122E-02  mlog
mlog_240               2.503655        3.994161E-02  mlog
mlog_241               2.445760        4.088709E-02  mlog
mlog_242               2.401401        4.164236E-02  mlog
mlog_243               2.351990        4.251719E-02  mlog
mlog_244               2.308778        4.331296E-02  mlog
mlog_245               2.270679        4.403969E-02  mlog
mlog_246               2.239800        4.464684E-02  mlog
mlog_247               2.214049        4.516612E-02  mlog
mlog_248               2.186957        4.572564E-02  mlog
mlog_249               2.153510        4.643581E-02  mlog
mlog_250               2.131298        4.691976E-02  mlog
mlog_251               2.107549        4.744847E-02  mlog
mlog_252               2.087782        4.789773E-02  mlog
mlog_253               2.061830        4.850061E-02  mlog
mlog_254               2.051153        4.875307E-02  mlog
mlog_255               2.022841        4.943542E-02  mlog
mlog_256               1.985876        5.035562E-02  mlog
mlog_257               1.966142        5.086102E-02  mlog
mlog_258               1.945961        5.138848E-02  mlog
mlog_259               1.924280        5.196749E-02  mlog
mlog_260               1.916981        5.216537E-02  mlog
mlog_261               1.916981        5.216537E-02  mlog
mlog_262               1.924280        5.196749E-02  mlog
mlog_263               1.893762        5.280494E-02  mlog
mlog_264               1.869232        5.349790E-02  mlog
mlog_265               1.852481        5.398167E-02  mlog
mlog_266               1.843856        5.423417E-02  mlog
mlog_267               1.952793        5.120870E-02  mlog
mlog_268               1.931458        5.177435E-02  mlog
mlog_269               1.885927        5.302432E-02  mlog
mlog_270               1.825427        5.478171E-02  mlog
mlog_271               1.796575        5.566146E-02  mlog
mlog_272               1.806859        5.534467E-02  mlog
mlog_273               1.776702        5.628406E-02  mlog
mlog_274               1.755113        5.697638E-02  mlog
mlog_275               1.733198        5.769681E-02  mlog
mlog_276               1.733198        5.769681E-02  mlog
mlog_277               1.710118        5.847549E-02  mlog
mlog_278               1.710118        5.847549E-02  mlog
mlog_279               1.684846        5.935260E-02  mlog
mlog_280               1.672099        5.980508E-02  mlog
mlog_281               1.644440        6.081099E-02  mlog
mlog_282               1.630429        6.133355E-02  mlog
mlog_283               1.630429        6.133355E-02  mlog
mlog_284               1.630429        6.133355E-02  mlog
mlog_285               1.600974        6.246198E-02  mlog
mlog_286               1.584332        6.311807E-02  mlog
mlog_287               1.568203        6.376726E-02  mlog
mlog_288               1.551451        6.445578E-02  mlog
mlog_289               1.551451        6.445578E-02  mlog
mlog_290               1.551451        6.445578E-02  mlog
mlog_291               1.710118        5.847549E-02  mlog
mlog_292               1.852481        5.398167E-02  mlog
mlog_293               1.672099        5.980508E-02  mlog
mlog_294               1.615951        6.188306E-02  mlog
mlog_295               1.584332        6.311807E-02  mlog
mlog_296               1.568203        6.376726E-02  mlog
mlog_297               1.534027        6.518789E-02  mlog
mlog_298               1.514549        6.602626E-02  mlog
mlog_299               1.495546        6.686522E-02  mlog
mlog_300               1.475672        6.776571E-02  mlog
mlog_301               1.475672        6.776571E-02  mlog
mlog_302               1.475672        6.776571E-02  mlog
mlog_303               1.475672        6.776571E-02  mlog
mlog_304               1.454846        6.873578E-02  mlog
mlog_305               1.432971        6.978508E-02  mlog
mlog_306               1.408242        7.101054E-02  mlog
mlog_307               1.475672        6.776571E-02  mlog
mlog_308               1.534027        6.518789E-02  mlog
mlog_309               1.475672        6.776571E-02  mlog
mlog_310               1.475672        6.776571E-02  mlog
mlog_311               1.475672        6.776571E-02  mlog
mlog_312               1.432971        6.978508E-02  mlog
mlog_313               1.383817        7.226388E-02  mlog
mlog_314               1.383817        7.226388E-02  mlog
mlog_315               1.383817        7.226388E-02  mlog
mlog_316               1.383817        7.226388E-02  mlog
mlog_317               1.383817        7.226388E-02  mlog
mlog_318               1.383817        7.226388E-02  mlog
mlog_319               1.330416        7.516448E-02  mlog
mlog_320               1.330416        7.516448E-02  mlog
mlog_321               1.330416        7.516448E-02  mlog
mlog_322               1.298855        7.699088E-02  mlog
mlog_323               1.298855        7.699088E-02  mlog
mlog_324               1.267174        7.891575E-02  mlog
mlog_325               1.267174        7.891575E-02  mlog
mlog_326               1.267174        7.891575E-02  mlog
mlog_327               1.232999        8.110309E-02  mlog
mlog_328               1.232999        8.110309E-02  mlog
mlog_329               1.232999        8.110309E-02  mlog
mlog_330               1.195902        8.361888E-02  mlog
mlog_331               1.232999        8.110309E-02  mlog
mlog_332               1.232999        8.110309E-02  mlog
mlog_333               1.232999        8.110309E-02  mlog
mlog_334               1.232999        8.110309E-02  mlog
mlog_335               1.195902        8.361888E-02  mlog
mlog_336               1.152291        8.678361E-02  mlog
mlog_337               1.149222        8.701538E-02  mlog
mlog_338               1.136724        8.797213E-02  mlog
mlog_339               1.139882        8.772836E-02  mlog
mlog_340               1.139882        8.772836E-02  mlog
mlog_341               1.139882        8.772836E-02  mlog
mlog_342               1.146131        8.725006E-02  mlog
mlog_343               1.127108        8.872263E-02  mlog
mlog_344               1.117275        8.950350E-02  mlog
mlog_345               1.107213        9.031682E-02  mlog
mlog_346               1.086363        9.205024E-02  mlog
mlog_347               1.082789        9.235410E-02  mlog
mlog_348               1.082789        9.235410E-02  mlog
mlog_349               1.107213        9.031682E-02  mlog
mlog_350               1.432971        6.978508E-02  mlog
mlog_351               1.860937        5.373636E-02  mlog
mlog_352               1.786752        5.596747E-02  mlog
mlog_353               1.860937        5.373636E-02  mlog
mlog_354               1.600974        6.246198E-02  mlog
mlog_355               1.534027        6.518789E-02  mlog
mlog_356               1.475672        6.776571E-02  mlog
mlog_357               1.357937        7.364113E-02  mlog
mlog_358               1.330416        7.516448E-02  mlog
mlog_359               1.298855        7.699088E-02  mlog
mlog_360               1.330416        7.516448E-02  mlog
mlog_361               1.298855        7.699088E-02  mlog
mlog_362               1.267174        7.891575E-02  mlog
mlog_363               1.267174        7.891575E-02  mlog
mlog_364               1.298855        7.699088E-02  mlog
mlog_365               1.330416        7.516448E-02  mlog
mlog_366               1.357937        7.364113E-02  mlog
mlog_367               1.330416        7.516448E-02  mlog
mlog_368               1.383817        7.226388E-02  mlog
mlog_369               1.514549        6.602626E-02  mlog
mlog_370               1.684846        5.935260E-02  mlog
mlog_371               1.755113        5.697638E-02  mlog
mlog_372               1.755113        5.697638E-02  mlog
mlog_373               1.825427        5.478171E-02  mlog
mlog_374               1.869232        5.349790E-02  mlog
mlog_375               1.796575        5.566146E-02  mlog
mlog_376               1.744294        5.732979E-02  mlog
mlog_377               1.658966        6.027852E-02  mlog
mlog_378               1.630429        6.133355E-02  mlog
mlog_379               1.806859        5.534467E-02  mlog
mlog_380               2.308778        4.331296E-02  mlog
mlog_381               2.386499        4.190238E-02  mlog
mlog_382               2.323665        4.303547E-02  mlog
mlog_383               2.214049        4.516612E-02  mlog
mlog_384               2.107549        4.744847E-02  mlog
mlog_385               2.010724        4.973332E-02  mlog
mlog_386               1.938520        5.158573E-02  mlog
mlog_387               2.056524        4.862573E-02  mlog
mlog_388               2.194792        4.556240E-02  mlog
mlog_389               2.166134        4.616519E-02  mlog
mlog_390               2.623249        3.812066E-02  mlog
mlog_391               2.743353        3.645174E-02  mlog
mlog_392               2.700011        3.703689E-02  mlog
mlog_393               2.469380        4.049599E-02  mlog
mlog_394               2.370883        4.217837E-02  mlog
mlog_395               2.473633        4.042637E-02  mlog
mlog_396               2.381296        4.199395E-02  mlog
mlog_397               2.293363        4.360409E-02  mlog
mlog_398               2.214049        4.516612E-02  mlog
mlog_399               2.153510        4.643581E-02  mlog
mlog_400               2.112605        4.733492E-02  mlog
mlog_401               2.117272        4.723059E-02  mlog
mlog_402               2.087782        4.789773E-02  mlog
mlog_403               2.067071        4.837762E-02  mlog
mlog_404               2.107549        4.744847E-02  mlog
mlog_405               2.072618        4.824816E-02  mlog
mlog_406               2.045714        4.888268E-02  mlog
mlog_407               2.034228        4.915871E-02  mlog
mlog_408               2.010724        4.973332E-02  mlog
mlog_409               2.016616        4.958802E-02  mlog
mlog_410               2.107549        4.744847E-02  mlog
mlog_411               2.228914        4.486490E-02  mlog
mlog_412               2.329601        4.292580E-02  mlog
mlog_413               2.546173        3.927463E-02  mlog
mlog_414               2.840043        3.521073E-02  mlog
mlog_415               2.975616        3.360649E-02  mlog
mlog_416               3.772520        2.650748E-02  mlog
mlog_417               3.522640        2.838780E-02  mlog
mlog_418               3.206502        3.118663E-02  mlog
mlog_419               3.055417        3.272876E-02  mlog
mlog_420               2.934448        3.407796E-02  mlog
mlog_421               2.899273        3.449140E-02  mlog
mlog_422               2.892984        3.456638E-02  mlog
mlog_423               2.840984        3.519907E-02  mlog
mlog_424               2.819939        3.546176E-02  mlog
mlog_425               3.029627        3.300736E-02  mlog
mlog_426               3.072507        3.254671E-02  mlog
mlog_427               2.986593        3.348297E-02  mlog
mlog_428               3.010173        3.322068E-02  mlog
mlog_429               3.054345        3.274024E-02  mlog
mlog_430               3.166252        3.158308E-02  mlog
mlog_431               3.243336        3.083245E-02  mlog
mlog_432               3.487887        2.867065E-02  mlog
mlog_433               3.362935        2.973593E-02  mlog
mlog_434               3.346549        2.988153E-02  mlog
mlog_435               3.513258        2.846361E-02  mlog
mlog_436               3.403841        2.937858E-02  mlog
mlog_437               3.236210        3.090035E-02  mlog
mlog_438               3.170467        3.154110E-02  mlog
mlog_439               3.206502        3.118663E-02  mlog
mlog_440               3.210345        3.114930E-02  mlog
mlog_441               3.157759        3.166803E-02  mlog
mlog_442               3.043834        3.285331E-02  mlog
mlog_443               2.931560        3.411153E-02  mlog
mlog_444               2.830139        3.533395E-02  mlog