pcf
* control data
restart regularisation
      25   13877      12      25      21
     1     1   single   point   1   0   0
5.0   2.0    0.3    0.03    10  999
5.0   5.0   1.0e-3
0.1   noaui
   25  .005  4   4  .005   4
1    1    1
* parameter groups
lzsn         relative     1.0000E-02  1.0000E-03  switch      2.000      parabolic
infilt       relative     1.0000E-02  1.0000E-03  switch      2.000      parabolic
agwrc        relative     1.0000E-02  1.0000E-03  switch      2.000      parabolic
deepfr       relative     1.0000E-02  1.0000E-03  switch      2.000      parabolic
basetp       relative     1.0000E-02  1.0000E-03  switch      2.000      parabolic
agwetp       relative     1.0000E-02  1.0000E-03  switch      2.000      parabolic
uzsn         relative     1.0000E-02  1.0000E-03  switch      2.000      parabolic
intfw        relative     1.0000E-02  1.0000E-03  switch      2.000      parabolic
irc          relative     1.0000E-02  1.0000E-03  switch      2.000      parabolic
cepsc        relative     1.0000E-02  1.0000E-03  switch      2.000      parabolic
lzetp        relative     1.0000E-02  1.0000E-03  switch      2.000      parabolic
iwatr        relative     1.0000E-02  1.0000E-03  switch      2.000      parabolic
* parameter data
lzsn000       log    factor   8.00000E+00   2.00000E+00   1.50000E+01      lzsn           1.000       0.000        1
infilt110     log    factor   5.00000E-02   1.00000E-03   5.00000E-01      infilt         1.000       0.000        1
infilt120     log    factor   5.00000E-02   1.00000E-03   5.00000E-01      infilt         1.000       0.000        1
infilt210     log    factor   5.00000E-02   1.00000E-03   5.00000E-01      infilt         1.000       0.000        1
infilt220     log    factor   5.00000E-02   1.00000E-03   5.00000E-01      infilt         1.000       0.000        1
infilt310     log    factor   5.00000E-02   1.00000E-03   5.00000E-01      infilt         1.000       0.000        1
infilt320     log    factor   5.00000E-02   1.00000E-03   5.00000E-01      infilt         1.000       0.000        1
agwrctr000    log    factor   9.90000E+01   8.40000E+01   9.99000E+02      agwrc          1.000       0.000        1
deepfr000     log    factor   1.00000E-03   1.00000E-05   5.00000E-01      deepfr         1.000       0.000        1
basetp000     log    factor   3.00000E-02   1.00000E-03   2.00000E-01      basetp         1.000       0.000        1
agwetp000     log    factor   5.00000E-02   1.00000E-03   2.00000E-01      agwetp         1.000       0.000        1
uzsn100       log    factor   5.00000E-01   5.00000E-02   2.00000E+00      uzsn           1.000       0.000        1
uzsn200       log    factor   5.00000E-01   5.00000E-02   2.00000E+00      uzsn           1.000       0.000        1
uzsn300       log    factor   5.00000E-01   5.00000E-02   2.00000E+00      uzsn           1.000       0.000        1
intfw200      log    factor   1.00000E+01   1.00000E+00   1.00000E+01      intfw          1.000       0.000        1
intfw300      log    factor   1.00000E+00   1.00000E+00   1.00000E+01      intfw          1.000       0.000        1
intfw100      log    factor   1.00000E+00   1.00000E+00   1.00000E+01      intfw          1.000       0.000        1
irctr000      log    factor   2.00000E+00   4.30000E-01   5.70000E+00      irc            1.000       0.000        1
cepsc100      log    factor   2.00000E-01   1.00000E-01   4.00000E-01      cepsc          1.000       0.000        1
cepsc200      log    factor   1.00000E-01   1.00000e-02   2.00000E-01      cepsc          1.000       0.000        1
cepsc300      log    factor   1.00000E-01   1.00000e-02   2.00000E-01      cepsc          1.000       0.000        1
lzetp100      log    factor   8.00000E-01   4.00000E-01   8.00000E-01      lzetp          1.000       0.000        1
lzetp200      log    factor   6.00000E-01   1.00000E-01   8.00000E-01      lzetp          1.000       0.000        1
lzetp300      log    factor   6.00000E-01   1.00000E-01   8.00000E-01      lzetp          1.000       0.000        1
retsc         log    factor   1.00000E+00   1.00000E-02   1.00000E+00      iwatr          1.000       0.000        1
* observation groups
mbaseind
mflow
mlog
mpeak
mtime
mvol_ann
mvol_smr
mvol_stm
mvol_wtr
regul_lzsn
regul_infilt
regul_agwrc
regul_deepfr
regul_basetp
regul_agwetp
regul_uzsn
regul_intfw
regul_irc
regul_cepsc
regul_lzetp
regul_iwatr
* observation data
mbaseind_0001     6.7951E-01     1.4716E+00     mbaseind
mflow_0001        6.2600E+01     1.5974E-02     mflow
mflow_0002        4.5600E+01     2.1930E-02     mflow
mflow_0003        6.1200E+01     1.6340E-02     mflow
mflow_0004        6.8300E+01     1.4641E-02     mflow
mflow_0005        5.1300E+01     1.9493E-02     mflow
mflow_0006        4.2700E+01     2.3419E-02     mflow
mflow_0007        3.8400E+01     2.6042E-02     mflow
mflow_0008        3.5600E+01     2.8090E-02     mflow
mflow_0009        3.4200E+01     2.9240E-02     mflow
mflow_0010        5.2700E+01     1.8975E-02     mflow
mflow_0011        4.1430E+02     2.4137E-03     mflow
mflow_0012        3.0890E+02     3.2373E-03     mflow
mflow_0013        2.0070E+02     4.9826E-03     mflow
mflow_0014        1.4520E+02     6.8871E-03     mflow
mflow_0015        1.1250E+02     8.8889E-03     mflow
mflow_0016        9.8200E+01     1.0183E-02     mflow
mflow_0017        1.0110E+02     9.8912E-03     mflow
mflow_0018        1.2960E+02     7.7160E-03     mflow
mflow_0019        1.0960E+02     9.1241E-03     mflow
mflow_0020        9.9700E+01     1.0030E-02     mflow
mflow_0021        9.8200E+01     1.0183E-02     mflow
mflow_0022        9.6800E+01     1.0331E-02     mflow
mflow_0023        8.6800E+01     1.1521E-02     mflow
mflow_0024        8.1200E+01     1.2315E-02     mflow
mflow_0025        8.9700E+01     1.1148E-02     mflow
mflow_0026        2.2350E+02     4.4743E-03     mflow
mflow_0027        2.2070E+02     4.5310E-03     mflow
mflow_0028        1.7650E+02     5.6657E-03     mflow
mflow_0029        1.4810E+02     6.7522E-03     mflow
mflow_0030        1.2810E+02     7.8064E-03     mflow
mflow_0031        1.1110E+02     9.0009E-03     mflow
mflow_0032        1.0110E+02     9.8912E-03     mflow
mflow_0033        9.2500E+01     1.0811E-02     mflow
mflow_0034        8.4000E+01     1.1905E-02     mflow
mflow_0035        7.9700E+01     1.2547E-02     mflow
mflow_0036        8.8300E+01     1.1325E-02     mflow
mflow_0037        1.2240E+02     8.1699E-03     mflow
mflow_0038        2.1070E+02     4.7461E-03     mflow
mflow_0039        5.6810E+02     1.7603E-03     mflow
mflow_0040        1.0180E+03     9.8232E-04     mflow
mflow_0041        6.4210E+02     1.5574E-03     mflow
mflow_0042        1.4664E+03     6.8194E-04     mflow
mflow_0043        2.1214E+03     4.7139E-04     mflow
mflow_0044        1.6515E+03     6.0551E-04     mflow
mflow_0045        1.3824E+03     7.2338E-04     mflow
mflow_0046        9.4680E+02     1.0562E-03     mflow
mflow_0047        6.8480E+02     1.4603E-03     mflow
mflow_0048        5.3820E+02     1.8580E-03     mflow
mflow_0049        4.6130E+02     2.1678E-03     mflow
mflow_0050        3.8730E+02     2.5820E-03     mflow
mflow_0051        3.4170E+02     2.9265E-03     mflow
mflow_0052        3.0890E+02     3.2373E-03     mflow
mflow_0053        2.8470E+02     3.5125E-03     mflow
mflow_0054        2.6480E+02     3.7764E-03     mflow
mflow_0055        4.0010E+02     2.4994E-03     mflow
mflow_0056        1.0521E+03     9.5048E-04     mflow
mflow_0057        1.1219E+03     8.9135E-04     mflow
mflow_0058        1.6658E+03     6.0031E-04     mflow
mflow_0059        3.7159E+03     2.6911E-04     mflow
mflow_0060        2.6481E+03     3.7763E-04     mflow
mflow_0061        3.5166E+03     2.8437E-04     mflow
mflow_0062        3.3031E+03     3.0275E-04     mflow
mflow_0063        2.5058E+03     3.9907E-04     mflow
mflow_0064        1.8224E+03     5.4873E-04     mflow
mflow_0065        1.4166E+03     7.0592E-04     mflow
mflow_0066        1.1703E+03     8.5448E-04     mflow
mflow_0067        9.8520E+02     1.0150E-03     mflow
mflow_0068        8.1580E+02     1.2258E-03     mflow
mflow_0069        6.9340E+02     1.4422E-03     mflow
mflow_0070        6.8050E+02     1.4695E-03     mflow
mflow_0071        9.0980E+02     1.0991E-03     mflow
mflow_0072        2.1071E+03     4.7459E-04     mflow
mflow_0073        2.3207E+03     4.3090E-04     mflow
mflow_0074        2.9614E+03     3.3768E-04     mflow
mflow_0075        2.4346E+03     4.1075E-04     mflow
mflow_0076        2.5769E+03     3.8806E-04     mflow
mflow_0077        1.7512E+03     5.7104E-04     mflow
mflow_0078        1.3169E+03     7.5936E-04     mflow
mflow_0079        1.1020E+03     9.0744E-04     mflow
mflow_0080        9.4680E+02     1.0562E-03     mflow
mflow_0081        8.0730E+02     1.2387E-03     mflow
mflow_0082        6.7910E+02     1.4725E-03     mflow
mflow_0083        5.8090E+02     1.7215E-03     mflow
mflow_0084        4.9830E+02     2.0068E-03     mflow
mflow_0085        4.2850E+02     2.3337E-03     mflow
mflow_0086        3.7160E+02     2.6911E-03     mflow
mflow_0087        3.3030E+02     3.0276E-03     mflow
mflow_0088        3.0040E+02     3.3289E-03     mflow
mflow_0089        3.0610E+02     3.2669E-03     mflow
mflow_0090        8.1290E+02     1.2302E-03     mflow
mflow_0091        1.4522E+03     6.8861E-04     mflow
mflow_0092        2.1214E+03     4.7139E-04     mflow
mflow_0093        1.3725E+03     7.2860E-04     mflow
mflow_0094        9.8520E+02     1.0150E-03     mflow
mflow_0095        8.1010E+02     1.2344E-03     mflow
mflow_0096        7.3320E+02     1.3639E-03     mflow
mflow_0097        7.5460E+02     1.3252E-03     mflow
mflow_0098        8.9270E+02     1.1202E-03     mflow
mflow_0099        1.0493E+03     9.5302E-04     mflow
mflow_0100        1.8224E+03     5.4873E-04     mflow
mflow_0101        1.4807E+03     6.7536E-04     mflow
mflow_0102        1.2885E+03     7.7610E-04     mflow
mflow_0103        1.0792E+03     9.2661E-04     mflow
mflow_0104        8.6280E+02     1.1590E-03     mflow
mflow_0105        6.9620E+02     1.4364E-03     mflow
mflow_0106        6.0080E+02     1.6644E-03     mflow
mflow_0107        8.5570E+02     1.1686E-03     mflow
mflow_0108        1.8224E+03     5.4873E-04     mflow
mflow_0109        1.6800E+03     5.9524E-04     mflow
mflow_0110        1.3312E+03     7.5120E-04     mflow
mflow_0111        1.9790E+03     5.0531E-04     mflow
mflow_0112        2.6197E+03     3.8172E-04     mflow
mflow_0113        3.2176E+03     3.1079E-04     mflow
mflow_0114        2.3349E+03     4.2828E-04     mflow
mflow_0115        1.6800E+03     5.9524E-04     mflow
mflow_0116        2.5342E+03     3.9460E-04     mflow
mflow_0117        2.3064E+03     4.3358E-04     mflow
mflow_0118        1.7939E+03     5.5744E-04     mflow
mflow_0119        1.5661E+03     6.3853E-04     mflow
mflow_0120        1.5803E+03     6.3279E-04     mflow
mflow_0121        1.5376E+03     6.5036E-04     mflow
mflow_0122        1.2714E+03     7.8653E-04     mflow
mflow_0123        1.0080E+03     9.9206E-04     mflow
mflow_0124        8.0160E+02     1.2475E-03     mflow
mflow_0125        6.4920E+02     1.5404E-03     mflow
mflow_0126        5.4670E+02     1.8292E-03     mflow
mflow_0127        4.8260E+02     2.0721E-03     mflow
mflow_0128        5.1400E+02     1.9455E-03     mflow
mflow_0129        3.0610E+03     3.2669E-04     mflow
mflow_0130        7.9017E+03     1.2656E-04     mflow
mflow_0131        6.7200E+03     1.4881E-04     mflow
mflow_0132        6.2644E+03     1.5963E-04     mflow
mflow_0133        2.7763E+03     3.6019E-04     mflow
mflow_0134        1.6373E+03     6.1076E-04     mflow
mflow_0135        1.1262E+03     8.8794E-04     mflow
mflow_0136        8.5000E+02     1.1765E-03     mflow
mflow_0137        6.7340E+02     1.4850E-03     mflow
mflow_0138        5.5670E+02     1.7963E-03     mflow
mflow_0139        4.8120E+02     2.0781E-03     mflow
mflow_0140        4.9120E+02     2.0358E-03     mflow
mflow_0141        9.4960E+02     1.0531E-03     mflow
mflow_0142        1.4180E+03     7.0522E-04     mflow
mflow_0143        1.2600E+03     7.9365E-04     mflow
mflow_0144        1.5519E+03     6.4437E-04     mflow
mflow_0145        1.4380E+03     6.9541E-04     mflow
mflow_0146        2.4346E+03     4.1075E-04     mflow
mflow_0147        2.2637E+03     4.4175E-04     mflow
mflow_0148        1.6515E+03     6.0551E-04     mflow
mflow_0149        1.2401E+03     8.0639E-04     mflow
mflow_0150        9.5530E+02     1.0468E-03     mflow
mflow_0151        7.6170E+02     1.3129E-03     mflow
mflow_0152        6.1930E+02     1.6147E-03     mflow
mflow_0153        5.1820E+02     1.9298E-03     mflow
mflow_0154        4.5130E+02     2.2158E-03     mflow
mflow_0155        4.1150E+02     2.4301E-03     mflow
mflow_0156        7.7450E+02     1.2912E-03     mflow
mflow_0157        9.1260E+02     1.0958E-03     mflow
mflow_0158        8.0440E+02     1.2432E-03     mflow
mflow_0159        6.7630E+02     1.4786E-03     mflow
mflow_0160        5.7090E+02     1.7516E-03     mflow
mflow_0161        4.9400E+02     2.0243E-03     mflow
mflow_0162        4.3280E+02     2.3105E-03     mflow
mflow_0163        3.9720E+02     2.5176E-03     mflow
mflow_0164        3.5170E+02     2.8433E-03     mflow
mflow_0165        3.1460E+02     3.1786E-03     mflow
mflow_0166        2.8760E+02     3.4771E-03     mflow
mflow_0167        2.6200E+02     3.8168E-03     mflow
mflow_0168        2.3780E+02     4.2052E-03     mflow
mflow_0169        2.2210E+02     4.5025E-03     mflow
mflow_0170        2.0930E+02     4.7778E-03     mflow
mflow_0171        1.9790E+02     5.0531E-03     mflow
mflow_0172        1.8510E+02     5.4025E-03     mflow
mflow_0173        1.7510E+02     5.7110E-03     mflow
mflow_0174        1.8650E+02     5.3619E-03     mflow
mflow_0175        1.7510E+02     5.7110E-03     mflow
mflow_0176        1.6090E+02     6.2150E-03     mflow
mflow_0177        1.4950E+02     6.6890E-03     mflow
mflow_0178        1.4240E+02     7.0225E-03     mflow
mflow_0179        1.3810E+02     7.2411E-03     mflow
mflow_0180        1.3240E+02     7.5529E-03     mflow
mflow_0181        1.3100E+02     7.6336E-03     mflow
mflow_0182        1.2960E+02     7.7160E-03     mflow
mflow_0183        1.4950E+02     6.6890E-03     mflow
mflow_0184        1.5380E+02     6.5020E-03     mflow
mflow_0185        1.5660E+02     6.3857E-03     mflow
mflow_0186        1.5090E+02     6.6269E-03     mflow
mflow_0187        1.4810E+02     6.7522E-03     mflow
mflow_0188        1.4090E+02     7.0972E-03     mflow
mflow_0189        1.3530E+02     7.3910E-03     mflow
mflow_0190        1.2960E+02     7.7160E-03     mflow
mflow_0191        1.2530E+02     7.9808E-03     mflow
mflow_0192        1.1960E+02     8.3612E-03     mflow
mflow_0193        1.2100E+02     8.2645E-03     mflow
mflow_0194        1.4090E+02     7.0972E-03     mflow
mflow_0195        3.3600E+02     2.9762E-03     mflow
mflow_0196        7.4320E+02     1.3455E-03     mflow
mflow_0197        5.7950E+02     1.7256E-03     mflow
mflow_0198        4.3850E+02     2.2805E-03     mflow
mflow_0199        3.8300E+02     2.6110E-03     mflow
mflow_0200        4.1150E+02     2.4301E-03     mflow
mflow_0201        4.2280E+02     2.3652E-03     mflow
mflow_0202        5.1680E+02     1.9350E-03     mflow
mflow_0203        6.1220E+02     1.6335E-03     mflow
mflow_0204        6.9620E+02     1.4364E-03     mflow
mflow_0205        7.0330E+02     1.4219E-03     mflow
mflow_0206        1.8651E+03     5.3616E-04     mflow
mflow_0207        2.8190E+03     3.5474E-04     mflow
mflow_0208        1.7369E+03     5.7574E-04     mflow
mflow_0209        1.1917E+03     8.3914E-04     mflow
mflow_0210        8.7840E+02     1.1384E-03     mflow
mflow_0211        6.8910E+02     1.4512E-03     mflow
mflow_0212        5.5810E+02     1.7918E-03     mflow
mflow_0213        4.5700E+02     2.1882E-03     mflow
mflow_0214        3.8580E+02     2.5920E-03     mflow
mflow_0215        3.3030E+02     3.0276E-03     mflow
mflow_0216        2.9470E+02     3.3933E-03     mflow
mflow_0217        2.5910E+02     3.8595E-03     mflow
mflow_0218        2.2640E+02     4.4170E-03     mflow
mflow_0219        2.0070E+02     4.9826E-03     mflow
mflow_0220        1.8790E+02     5.3220E-03     mflow
mflow_0221        1.7230E+02     5.8038E-03     mflow
mflow_0222        1.5660E+02     6.3857E-03     mflow
mflow_0223        1.4660E+02     6.8213E-03     mflow
mflow_0224        1.3670E+02     7.3153E-03     mflow
mflow_0225        1.2960E+02     7.7160E-03     mflow
mflow_0226        1.4810E+02     6.7522E-03     mflow
mflow_0227        1.4090E+02     7.0972E-03     mflow
mflow_0228        1.4090E+02     7.0972E-03     mflow
mflow_0229        1.3380E+02     7.4738E-03     mflow
mflow_0230        1.5950E+02     6.2696E-03     mflow
mflow_0231        2.2920E+02     4.3630E-03     mflow
mflow_0232        2.8900E+02     3.4602E-03     mflow
mflow_0233        2.6770E+02     3.7355E-03     mflow
mflow_0234        2.5340E+02     3.9463E-03     mflow
mflow_0235        4.7410E+02     2.1093E-03     mflow
mflow_0236        7.1330E+02     1.4019E-03     mflow
mflow_0237        5.9230E+02     1.6883E-03     mflow
mflow_0238        4.6840E+02     2.1349E-03     mflow
mflow_0239        3.8010E+02     2.6309E-03     mflow
mflow_0240        3.1890E+02     3.1358E-03     mflow
mflow_0241        2.7910E+02     3.5829E-03     mflow
mflow_0242        2.5200E+02     3.9683E-03     mflow
mflow_0243        2.2490E+02     4.4464E-03     mflow
mflow_0244        2.0360E+02     4.9116E-03     mflow
mflow_0245        1.8650E+02     5.3619E-03     mflow
mflow_0246        1.7370E+02     5.7571E-03     mflow
mflow_0247        1.6370E+02     6.1087E-03     mflow
mflow_0248        1.5380E+02     6.5020E-03     mflow
mflow_0249        1.4240E+02     7.0225E-03     mflow
mflow_0250        1.3530E+02     7.3910E-03     mflow
mflow_0251        1.2810E+02     7.8064E-03     mflow
mflow_0252        1.2240E+02     8.1699E-03     mflow
mflow_0253        1.1530E+02     8.6730E-03     mflow
mflow_0254        1.1250E+02     8.8889E-03     mflow
mflow_0255        1.0540E+02     9.4877E-03     mflow
mflow_0256        9.6800E+01     1.0331E-02     mflow
mflow_0257        9.2500E+01     1.0811E-02     mflow
mflow_0258        8.8300E+01     1.1325E-02     mflow
mflow_0259        8.4000E+01     1.1905E-02     mflow
mflow_0260        8.2600E+01     1.2107E-02     mflow
mflow_0261        8.2600E+01     1.2107E-02     mflow
mflow_0262        8.4000E+01     1.1905E-02     mflow
mflow_0263        7.8300E+01     1.2771E-02     mflow
mflow_0264        7.4000E+01     1.3514E-02     mflow
mflow_0265        7.1200E+01     1.4045E-02     mflow
mflow_0266        6.9800E+01     1.4327E-02     mflow
mflow_0267        8.9700E+01     1.1148E-02     mflow
mflow_0268        8.5400E+01     1.1710E-02     mflow
mflow_0269        7.6900E+01     1.3004E-02     mflow
mflow_0270        6.6900E+01     1.4948E-02     mflow
mflow_0271        6.2600E+01     1.5974E-02     mflow
mflow_0272        6.4100E+01     1.5601E-02     mflow
mflow_0273        5.9800E+01     1.6722E-02     mflow
mflow_0274        5.6900E+01     1.7575E-02     mflow
mflow_0275        5.4100E+01     1.8484E-02     mflow
mflow_0276        5.4100E+01     1.8484E-02     mflow
mflow_0277        5.1300E+01     1.9493E-02     mflow
mflow_0278        5.1300E+01     1.9493E-02     mflow
mflow_0279        4.8400E+01     2.0661E-02     mflow
mflow_0280        4.7000E+01     2.1277E-02     mflow
mflow_0281        4.4100E+01     2.2676E-02     mflow
mflow_0282        4.2700E+01     2.3419E-02     mflow
mflow_0283        4.2700E+01     2.3419E-02     mflow
mflow_0284        4.2700E+01     2.3419E-02     mflow
mflow_0285        3.9900E+01     2.5063E-02     mflow
mflow_0286        3.8400E+01     2.6042E-02     mflow
mflow_0287        3.7000E+01     2.7027E-02     mflow
mflow_0288        3.5600E+01     2.8090E-02     mflow
mflow_0289        3.5600E+01     2.8090E-02     mflow
mflow_0290        3.5600E+01     2.8090E-02     mflow
mflow_0291        5.1300E+01     1.9493E-02     mflow
mflow_0292        7.1200E+01     1.4045E-02     mflow
mflow_0293        4.7000E+01     2.1277E-02     mflow
mflow_0294        4.1300E+01     2.4213E-02     mflow
mflow_0295        3.8400E+01     2.6042E-02     mflow
mflow_0296        3.7000E+01     2.7027E-02     mflow
mflow_0297        3.4200E+01     2.9240E-02     mflow
mflow_0298        3.2700E+01     3.0581E-02     mflow
mflow_0299        3.1300E+01     3.1949E-02     mflow
mflow_0300        2.9900E+01     3.3445E-02     mflow
mflow_0301        2.9900E+01     3.3445E-02     mflow
mflow_0302        2.9900E+01     3.3445E-02     mflow
mflow_0303        2.9900E+01     3.3445E-02     mflow
mflow_0304        2.8500E+01     3.5088E-02     mflow
mflow_0305        2.7100E+01     3.6900E-02     mflow
mflow_0306        2.5600E+01     3.9062E-02     mflow
mflow_0307        2.9900E+01     3.3445E-02     mflow
mflow_0308        3.4200E+01     2.9240E-02     mflow
mflow_0309        2.9900E+01     3.3445E-02     mflow
mflow_0310        2.9900E+01     3.3445E-02     mflow
mflow_0311        2.9900E+01     3.3445E-02     mflow
mflow_0312        2.7100E+01     3.6900E-02     mflow
mflow_0313        2.4200E+01     4.1322E-02     mflow
mflow_0314        2.4200E+01     4.1322E-02     mflow
mflow_0315        2.4200E+01     4.1322E-02     mflow
mflow_0316        2.4200E+01     4.1322E-02     mflow
mflow_0317        2.4200E+01     4.1322E-02     mflow
mflow_0318        2.4200E+01     4.1322E-02     mflow
mflow_0319        2.1400E+01     4.6729E-02     mflow
mflow_0320        2.1400E+01     4.6729E-02     mflow
mflow_0321        2.1400E+01     4.6729E-02     mflow
mflow_0322        1.9900E+01     5.0251E-02     mflow
mflow_0323        1.9900E+01     5.0251E-02     mflow
mflow_0324        1.8500E+01     5.4054E-02     mflow
mflow_0325        1.8500E+01     5.4054E-02     mflow
mflow_0326        1.8500E+01     5.4054E-02     mflow
mflow_0327        1.7100E+01     5.8480E-02     mflow
mflow_0328        1.7100E+01     5.8480E-02     mflow
mflow_0329        1.7100E+01     5.8480E-02     mflow
mflow_0330        1.5700E+01     6.3694E-02     mflow
mflow_0331        1.7100E+01     5.8480E-02     mflow
mflow_0332        1.7100E+01     5.8480E-02     mflow
mflow_0333        1.7100E+01     5.8480E-02     mflow
mflow_0334        1.7100E+01     5.8480E-02     mflow
mflow_0335        1.5700E+01     6.3694E-02     mflow
mflow_0336        1.4200E+01     7.0423E-02     mflow
mflow_0337        1.4100E+01     7.0922E-02     mflow
mflow_0338        1.3700E+01     7.2993E-02     mflow
mflow_0339        1.3800E+01     7.2464E-02     mflow
mflow_0340        1.3800E+01     7.2464E-02     mflow
mflow_0341        1.3800E+01     7.2464E-02     mflow
mflow_0342        1.4000E+01     7.1429E-02     mflow
mflow_0343        1.3400E+01     7.4627E-02     mflow
mflow_0344        1.3100E+01     7.6336E-02     mflow
mflow_0345        1.2800E+01     7.8125E-02     mflow
mflow_0346        1.2200E+01     8.1967E-02     mflow
mflow_0347        1.2100E+01     8.2645E-02     mflow
mflow_0348        1.2100E+01     8.2645E-02     mflow
mflow_0349        1.2800E+01     7.8125E-02     mflow
mflow_0350        2.7100E+01     3.6900E-02     mflow
mflow_0351        7.2600E+01     1.3774E-02     mflow
mflow_0352        6.1200E+01     1.6340E-02     mflow
mflow_0353        7.2600E+01     1.3774E-02     mflow
mflow_0354        3.9900E+01     2.5063E-02     mflow
mflow_0355        3.4200E+01     2.9240E-02     mflow
mflow_0356        2.9900E+01     3.3445E-02     mflow
mflow_0357        2.2800E+01     4.3860E-02     mflow
mflow_0358        2.1400E+01     4.6729E-02     mflow
mflow_0359        1.9900E+01     5.0251E-02     mflow
mflow_0360        2.1400E+01     4.6729E-02     mflow
mflow_0361        1.9900E+01     5.0251E-02     mflow
mflow_0362        1.8500E+01     5.4054E-02     mflow
mflow_0363        1.8500E+01     5.4054E-02     mflow
mflow_0364        1.9900E+01     5.0251E-02     mflow
mflow_0365        2.1400E+01     4.6729E-02     mflow
mflow_0366        2.2800E+01     4.3860E-02     mflow
mflow_0367        2.1400E+01     4.6729E-02     mflow
mflow_0368        2.4200E+01     4.1322E-02     mflow
mflow_0369        3.2700E+01     3.0581E-02     mflow
mflow_0370        4.8400E+01     2.0661E-02     mflow
mflow_0371        5.6900E+01     1.7575E-02     mflow
mflow_0372        5.6900E+01     1.7575E-02     mflow
mflow_0373        6.6900E+01     1.4948E-02     mflow
mflow_0374        7.4000E+01     1.3514E-02     mflow
mflow_0375        6.2600E+01     1.5974E-02     mflow
mflow_0376        5.5500E+01     1.8018E-02     mflow
mflow_0377        4.5600E+01     2.1930E-02     mflow
mflow_0378        4.2700E+01     2.3419E-02     mflow
mflow_0379        6.4100E+01     1.5601E-02     mflow
mflow_0380        2.0360E+02     4.9116E-03     mflow
mflow_0381        2.4350E+02     4.1068E-03     mflow
mflow_0382        2.1070E+02     4.7461E-03     mflow
mflow_0383        1.6370E+02     6.1087E-03     mflow
mflow_0384        1.2810E+02     7.8064E-03     mflow
mflow_0385        1.0250E+02     9.7561E-03     mflow
mflow_0386        8.6800E+01     1.1521E-02     mflow
mflow_0387        1.1390E+02     8.7796E-03     mflow
mflow_0388        1.5660E+02     6.3857E-03     mflow
mflow_0389        1.4660E+02     6.8213E-03     mflow
mflow_0390        4.2000E+02     2.3810E-03     mflow
mflow_0391        5.5380E+02     1.8057E-03     mflow
mflow_0392        5.0120E+02     1.9952E-03     mflow
mflow_0393        2.9470E+02     3.3933E-03     mflow
mflow_0394        2.3490E+02     4.2571E-03     mflow
mflow_0395        2.9760E+02     3.3602E-03     mflow
mflow_0396        2.4060E+02     4.1563E-03     mflow
mflow_0397        1.9650E+02     5.0891E-03     mflow
mflow_0398        1.6370E+02     6.1087E-03     mflow
mflow_0399        1.4240E+02     7.0225E-03     mflow
mflow_0400        1.2960E+02     7.7160E-03     mflow
mflow_0401        1.3100E+02     7.6336E-03     mflow
mflow_0402        1.2240E+02     8.1699E-03     mflow
mflow_0403        1.1670E+02     8.5690E-03     mflow
mflow_0404        1.2810E+02     7.8064E-03     mflow
mflow_0405        1.1820E+02     8.4602E-03     mflow
mflow_0406        1.1110E+02     9.0009E-03     mflow
mflow_0407        1.0820E+02     9.2421E-03     mflow
mflow_0408        1.0250E+02     9.7561E-03     mflow
mflow_0409        1.0390E+02     9.6246E-03     mflow
mflow_0410        1.2810E+02     7.8064E-03     mflow
mflow_0411        1.6940E+02     5.9032E-03     mflow
mflow_0412        2.1360E+02     4.6816E-03     mflow
mflow_0413        3.5170E+02     2.8433E-03     mflow
mflow_0414        6.9190E+02     1.4453E-03     mflow
mflow_0415        9.4540E+02     1.0578E-03     mflow
mflow_0416        5.9227E+03     1.6884E-04     mflow
mflow_0417        3.3315E+03     3.0017E-04     mflow
mflow_0418        1.6088E+03     6.2158E-04     mflow
mflow_0419        1.1361E+03     8.8020E-04     mflow
mflow_0420        8.5990E+02     1.1629E-03     mflow
mflow_0421        7.9300E+02     1.2610E-03     mflow
mflow_0422        7.8160E+02     1.2794E-03     mflow
mflow_0423        6.9340E+02     1.4422E-03     mflow
mflow_0424        6.6060E+02     1.5138E-03     mflow
mflow_0425        1.0706E+03     9.3406E-04     mflow
mflow_0426        1.1817E+03     8.4624E-04     mflow
mflow_0427        9.6960E+02     1.0314E-03     mflow
mflow_0428        1.0237E+03     9.7685E-04     mflow
mflow_0429        1.1333E+03     8.8238E-04     mflow
mflow_0430        1.4664E+03     6.8194E-04     mflow
mflow_0431        1.7512E+03     5.7104E-04     mflow
mflow_0432        3.0753E+03     3.2517E-04     mflow
mflow_0433        2.3064E+03     4.3358E-04     mflow
mflow_0434        2.2210E+03     4.5025E-04     mflow
mflow_0435        3.2603E+03     3.0672E-04     mflow
mflow_0436        2.5342E+03     3.9460E-04     mflow
mflow_0437        1.7227E+03     5.8048E-04     mflow
mflow_0438        1.4807E+03     6.7536E-04     mflow
mflow_0439        1.6088E+03     6.2158E-04     mflow
mflow_0440        1.6231E+03     6.1610E-04     mflow
mflow_0441        1.4380E+03     6.9541E-04     mflow
mflow_0442        1.1062E+03     9.0400E-04     mflow
mflow_0443        8.5420E+02     1.1707E-03     mflow
mflow_0444        6.7630E+02     1.4786E-03     mflow
mflow_0445        5.5530E+02     1.8008E-03     mflow
mflow_0446        4.6980E+02     2.1286E-03     mflow
mflow_0447        4.4710E+02     2.2366E-03     mflow
mflow_0448        4.9830E+02     2.0068E-03     mflow
mflow_0449        6.0790E+02     1.6450E-03     mflow
mflow_0450        6.5490E+02     1.5270E-03     mflow
mflow_0451        9.2260E+02     1.0839E-03     mflow
mflow_0452        2.6624E+03     3.7560E-04     mflow
mflow_0453        6.0508E+03     1.6527E-04     mflow
mflow_0454        4.0576E+03     2.4645E-04     mflow
mflow_0455        2.4061E+03     4.1561E-04     mflow
mflow_0456        2.9186E+03     3.4263E-04     mflow
mflow_0457        3.1464E+03     3.1782E-04     mflow
mflow_0458        2.7478E+03     3.6393E-04     mflow
mflow_0459        3.5024E+03     2.8552E-04     mflow
mflow_0460        2.5485E+03     3.9239E-04     mflow
mflow_0461        2.0929E+03     4.7781E-04     mflow
mflow_0462        1.5803E+03     6.3279E-04     mflow
mflow_0463        1.2130E+03     8.2440E-04     mflow
mflow_0464        9.3250E+02     1.0724E-03     mflow
mflow_0465        7.9590E+02     1.2564E-03     mflow
mflow_0466        6.7770E+02     1.4756E-03     mflow
mflow_0467        6.0220E+02     1.6606E-03     mflow
mflow_0468        5.5380E+02     1.8057E-03     mflow
mflow_0469        4.9830E+02     2.0068E-03     mflow
mflow_0470        4.5420E+02     2.2017E-03     mflow
mflow_0471        4.0580E+02     2.4643E-03     mflow
mflow_0472        3.6870E+02     2.7122E-03     mflow